/*--------------------------------*- C++ -*----------------------------------*\
| =========                 |                                                 |
| \\      /  F ield         | OpenFOAM: The Open Source CFD Toolbox           |
|  \\    /   O peration     | Version:  v2012                                 |
|   \\  /    A nd           | Website:  www.openfoam.com                      |
|    \\/     M anipulation  |                                                 |
\*---------------------------------------------------------------------------*/
FoamFile
{
    version     2.0;
    format      ascii;
    class       polyBoundaryMesh;
    location    "constant/polyMesh";
    object      boundary;
}
// * * * * * * * * * * * * * * * * * * * * * * * * * * * * * * * * * * * * * //

12
(
    H2_inlet
    {
        type            patch;
        nFaces          100;
        startFace       262170;
    }
    O2_inlet
    {
        type            patch;
        nFaces          100;
        startFace       262270;
    }
    inlet
    {
        type            patch;
        nFaces          240;
        startFace       262370;
    }
    outlet
    {
        type            patch;
        nFaces          240;
        startFace       262610;
    }
    upperWalls
    {
        type            wall;
        inGroups        1(wall);
        nFaces          484;
        startFace       262850;
    }
    bottomWalls
    {
        type            wall;
        inGroups        1(wall);
        nFaces          484;
        startFace       263334;
    }
    fixedWalls
    {
        type            wall;
        inGroups        1(wall);
        nFaces          200;
        startFace       263818;
    }
    frontAndBack
    {
        type            empty;
        inGroups        1(empty);
        nFaces          263200;
        startFace       264018;
    }
    o2_succion
    {
        type            patch;
        nFaces          100;
        startFace       527218;
    }
    o2_eyeccion
    {
        type            patch;
        nFaces          6;
        startFace       527318;
    }
    h2_succion
    {
        type            patch;
        nFaces          100;
        startFace       527324;
    }
    h2_eyeccion
    {
        type            patch;
        nFaces          6;
        startFace       527424;
    }
)

// ************************************************************************* //
