/*--------------------------------*- C++ -*----------------------------------*\
  =========                 |
  \\      /  F ield         | OpenFOAM: The Open Source CFD Toolbox
   \\    /   O peration     | Website:  https://openfoam.org
    \\  /    A nd           | Version:  8
     \\/     M anipulation  |
\*---------------------------------------------------------------------------*/
FoamFile
{
    version     2.0;
    format      ascii;
    class       dictionary;
    object      blockMeshDict;
}
// * * * * * * * * * * * * * * * * * * * * * * * * * * * * * * * * * * * * * //

convertToMeters 1.0;

vertices
(
    (0   0   0  ) // vertex number 0
    (12  0   0  ) // vertex number 1
    (13  0   0  ) // vertex number 2
    (50  0   0  ) // vertex number 3
    
    (0   3.5 0  ) // vertex number 4
    (12  3.5 0  ) // vertex number 5
    (13  3.5 0  ) // vertex number 6
    (50  3.5 0  ) // vertex number 7
    
    (0   4.5 0  ) // vertex number 8
    (12  4.5 0  ) // vertex number 9
    (13  4.5 0  ) // vertex number 10
    (50  4.5 0  ) // vertex number 11
    
    (0   8   0  ) // vertex number 12
    (12  8   0  ) // vertex number 13
    (13  8   0  ) // vertex number 14
    (50  8   0  ) // vertex number 15
    
    (0   0   10 ) // vertex number 16
    (12  0   10 ) // vertex number 17
    (13  0   10 ) // vertex number 18
    (50  0   10 ) // vertex number 19
    
    (0   3.5 10 ) // vertex number 20
    (12  3.5 10 ) // vertex number 21
    (13  3.5 10 ) // vertex number 22
    (50  3.5 10 ) // vertex number 23
    
    (0   4.5 10 ) // vertex number 24
    (12  4.5 10 ) // vertex number 25
    (13  4.5 10 ) // vertex number 26
    (50  4.5 10 ) // vertex number 27
    
    (0   8   10 ) // vertex number 28
    (12  8   10 ) // vertex number 29
    (13  8   10 ) // vertex number 30
    (50  8   10 ) // vertex number 31
    
);

blocks
(
    
    hex (0 1 5 4 16 17 21 20) (120 70 1) simpleGrading (0.1 0.2 1) // block number 0
    hex (1 2 6 5 17 18 22 21) (100 70 1) simpleGrading (1 0.2 1) // block number 1
    hex (2 3 7 6 18 19 23 22) (370 70 1) simpleGrading (10 0.2 1) // block number 2
    hex (4 5 9 8 20 21 25 24) (120 100 1) simpleGrading (0.1 1 1) // block number 3
    hex (6 7 11 10 22 23 27 26) (370 100 1) simpleGrading (10 1 1) // block number 4
    hex (8 9 13 12 24 25 29 28) (120 70 1) simpleGrading (0.1 5 1) // block number 5
    hex (9 10 14 13 25 26 30 29) (100 70 1) simpleGrading (1 5 1) // block number 6
    hex (10 11 15 14 26 27 31 30) (370 70 1) simpleGrading (10 5 1) // block number 7
    
    
    
);

edges
(
);

boundary
(
	
    H2_inlet
    {
        type patch;
        faces
        (
	    (5 21 22 6)
        );
    }

    O2_inlet
    {
        type patch;
        faces
        (
            (25 26 10 9)
        );
    }
    
    inlet
    {
        type patch;
        faces
        (
            (0 16 20 4)
            (4 20 24 8)
            (8 24 28 12)
        );
    }    
    
    outlet
    {
        type patch;
        faces
        (
            (19 3 7 23)
            (23 7 11 27)
            (27 11 15 31)
        );
    }   
    
    fixedWalls
    {
        type wall;
        faces
        (
            (0 16 17 1)
            (1 17 18 2)
            (2 18 19 3)
            
            
            (26 22 6 10)
            (5 21 25 9)
            
            (12 28 29 13)
            (13 29 30 14)
            (14 30 31 15)
            
        );
    }
    frontAndBack
    {
        type empty;
        faces
        (
            (0 1 5 4)
            (4 5 9 8)
            (8 9 13 12)
            (1 2 6 5)
            (9 10 14 13)
            (2 3 7 6)
            (6 7 11 10)
            (10 11 15 14)
            
            (16 17 21 20)
            (20 21 25 24)
            (24 25 29 28)
            (17 18 22 21)
            (25 26 30 29)
            (18 19 23 22)
            (22 23 27 26)
            (26 27 31 30)
        );
    }
);

mergePatchPairs
(
);

// ************************************************************************* //
